         300
  Built with Packmol                                             
  Ar           5.827640        9.334941        7.200100
  Ar          24.000078       -0.000129       23.329955
  Ar           8.960762        9.409064        4.115332
  Ar          17.576346       18.861653       20.139716
  Ar          22.836351       -0.000112       19.142689
  Ar          19.664931       20.541640       15.588519
  Ar          10.548921       16.634119        5.868239
  Ar          18.115499        7.608129       17.981264
  Ar           4.604666       20.647197        7.409455
  Ar           2.205803        3.625077       24.000038
  Ar          15.426336       24.021497       24.009346
  Ar          10.466231        7.938502       -0.000091
  Ar          24.000034       -0.000047       10.453806
  Ar          10.702708       22.596535       -0.000117
  Ar          -0.000149       24.000152       12.100212
  Ar          24.010221       -0.012145        2.286519
  Ar          12.599575       13.203955       18.925110
  Ar           1.694180        7.720435        0.183576
  Ar          15.232927       20.919853       13.887014
  Ar           2.315068       -0.000059       15.752414
  Ar          15.136275       12.746386       24.000112
  Ar           8.522377       -0.001733       -0.010310
  Ar          23.032184       16.936494        6.192324
  Ar          15.794875       10.612154       20.474704
  Ar          10.336060       15.106957        9.986544
  Ar          18.869346       -0.000099       17.239977
  Ar          12.217445       -0.018039       10.982448
  Ar           8.296196        3.467398       18.495637
  Ar          24.000039        4.041290       11.902585
  Ar           4.574478        2.345174       20.535183
  Ar           0.093831       16.655318       24.000023
  Ar          -0.000064       22.258206        6.037505
  Ar          20.694749        3.812577        9.214739
  Ar          12.246470       24.000122       15.173136
  Ar          24.000140        5.394694        7.472920
  Ar          23.601988       10.975969       16.837008
  Ar          -0.021255       20.558160       21.991540
  Ar          15.513026        5.668005        4.608941
  Ar          13.590599       20.838827       22.428212
  Ar          20.213308        5.451602       14.538589
  Ar           2.580185       24.000120        8.825592
  Ar          13.797982       21.110757       17.799669
  Ar          -0.000115        8.694095        7.678003
  Ar           0.695281        7.653193       21.519199
  Ar          23.902895        8.123775       -0.000061
  Ar          24.019186        3.007911       16.686234
  Ar          19.393939       13.836167       24.000065
  Ar          20.232318       24.035525       19.406422
  Ar          18.891333        1.798000        0.085722
  Ar          17.127610       11.770832       10.051555
  Ar           4.322023       24.000085       24.000075
  Ar          14.494717        6.870979       14.481759
  Ar          20.311834       -0.000000        3.810047
  Ar          19.320725       11.952638       16.618481
  Ar          13.679256        3.252173       12.762382
  Ar           8.778428        5.920278       14.589031
  Ar          -0.004943        3.701535       20.460460
  Ar           6.575831        7.093225       10.966364
  Ar           1.392895       -0.016123       19.987193
  Ar          19.625660       16.882488        3.360818
  Ar           6.111936       15.010203       16.642832
  Ar          24.002430       14.923579       18.456770
  Ar           9.219856        2.045868       12.641920
  Ar           3.207342        9.705003       24.000205
  Ar          -0.000607       -0.000770       12.282753
  Ar          10.026969        9.921032        9.708029
  Ar           2.984871        5.927594        8.708879
  Ar           4.293118        3.899144       -0.000033
  Ar          -0.000103        6.979202       11.728493
  Ar          12.821405       11.994140       -0.015268
  Ar          16.373342       -0.000054        9.908843
  Ar           3.865138       20.040755       11.700411
  Ar          20.009614        6.075946       -0.000059
  Ar          23.749000       14.456272       24.000102
  Ar          17.793653        9.245846       24.000063
  Ar          22.991058        3.094503       -0.017531
  Ar           3.946721       11.710722       -0.012431
  Ar          24.000295       20.734340        2.870861
  Ar          23.283946       24.000007       10.696372
  Ar          20.296192       12.728442       12.459453
  Ar          24.001773       21.119005       13.867843
  Ar           3.375615       19.929556       24.007649
  Ar          12.528725       12.517682        7.187126
  Ar          -0.000037        5.334791        4.843067
  Ar          10.885252       13.251614        3.251112
  Ar          10.217596       -0.003392        3.612635
  Ar          14.305342       -0.002510       18.405040
  Ar          16.456197       22.993333       20.215381
  Ar          20.016925        6.210341       21.876929
  Ar           9.204913       18.929789       20.406641
  Ar           6.887467       24.000102        9.714270
  Ar          10.524107       -0.000069       16.214975
  Ar          13.638059       -0.000028        6.462893
  Ar          21.931790       10.234269       24.026072
  Ar           8.059783       -0.000054       21.560229
  Ar          12.998559        4.313431       24.000150
  Ar          18.958744       10.756662       -0.010862
  Ar          16.237767       17.777791       16.148907
  Ar          11.800068        2.142894       20.667840
  Ar           3.218660       21.341181       16.098078
  Ar           8.154309       20.156227       10.732179
  Ar          19.845395       -0.006464       22.368757
  Ar           5.321823        3.284597       15.262706
  Ar           5.597217       -0.000158       12.834797
  Ar          -0.000136        7.855584       16.174298
  Ar          17.844605       23.872357       -0.007292
  Ar           2.190407        3.344119       12.177389
  Ar           0.308870       19.265877        9.228661
  Ar          13.447056       17.360129       20.054892
  Ar           4.898306        6.448514       22.060803
  Ar           2.182916       23.564727       20.392717
  Ar           4.997744       23.465776       -0.000038
  Ar           8.055406        5.545322        7.125284
  Ar           6.046919       10.563109       21.241504
  Ar          24.000098       21.009629        7.345415
  Ar          20.771110       11.818019        7.724959
  Ar          -0.000053       -0.000044       24.000058
  Ar          15.828878        7.715540       -0.000073
  Ar          24.033580       11.329176       12.726663
  Ar          -0.000061       20.199470       13.503130
  Ar          14.592902       16.576943        4.142734
  Ar           3.311058       10.058227       17.313960
  Ar          21.797341       24.002352       15.549049
  Ar           8.200530       12.983408        6.566108
  Ar          -0.017556       15.216530        7.770309
  Ar          13.436097        8.689994       24.000157
  Ar          11.985931        7.455428        6.639781
  Ar           3.010256       16.943023        5.807934
  Ar          21.926344        8.119410       11.607174
  Ar          20.844890       17.808834       24.009659
  Ar          -0.000109       12.287657       23.673112
  Ar          -0.000081        3.461570       16.035621
  Ar           1.505683       20.843612       -0.000102
  Ar           6.741927       10.024383       14.239893
  Ar          11.326273       -0.005394       24.008452
  Ar          16.063897       20.711987        3.856839
  Ar           0.000049       24.012749       24.007417
  Ar          12.410966       20.588092        6.299694
  Ar          11.097791        9.652802       14.736451
  Ar          22.122257       23.899219        0.616750
  Ar          18.357935       24.002450        3.957433
  Ar          24.000458       22.075121       24.000423
  Ar          10.054409        1.891820        8.212564
  Ar           7.389766       19.719779        0.022226
  Ar          12.894742       16.172450       13.736485
  Ar          15.094809       24.058311       11.411026
  Ar           7.966727       12.715140       24.013190
  Ar           6.865164        7.612198       18.169079
  Ar           8.231727       20.259522        4.952196
  Ar          11.213786       23.240089       10.894495
  Ar          24.000077       18.123449       10.662223
  Ar           3.209282        2.599501        5.845986
  Ar          20.406526       24.000071       24.000019
  Ar          16.777269       19.610694       -0.000143
  Ar          14.675185       24.000151        6.285251
  Ar          21.379622       20.707759       21.306050
  Ar          18.526654        8.489920        3.256294
  Ar           6.707928       16.064339        3.803135
  Ar          15.663537       -0.003459       14.221191
  Ar          15.523520        6.307251       21.321213
  Ar          24.000128        6.643026       24.000001
  Ar           3.469226        7.094761       14.079062
  Ar          19.805184       24.000123        8.017143
  Ar          16.753707       14.649585       19.018837
  Ar          20.355025       -0.011685        8.092740
  Ar           5.304920       11.741149        3.749683
  Ar           0.837090       16.497086       -0.000120
  Ar          21.612137        3.182579       24.014322
  Ar          10.215525       16.478564       17.208052
  Ar          24.009123       11.528726       20.862562
  Ar          -0.000005       10.049067        3.502932
  Ar          16.152572       12.951266        1.980708
  Ar           5.568436       20.786176       19.826436
  Ar           0.100858       14.445829        3.534174
  Ar          12.897861       -0.000102       -0.000088
  Ar           8.137420       23.322902       13.946820
  Ar           6.200098        1.343774        2.955334
  Ar          14.029508        3.889008        8.347459
  Ar          15.670008       -0.000084       23.701708
  Ar           9.330551       13.607221       13.994980
  Ar           6.653740       12.573508       10.659745
  Ar          11.636617        3.618978        4.541599
  Ar          23.899119        1.190397        6.256038
  Ar          10.139110        6.079697       21.515934
  Ar          -0.006192       19.814801       17.906407
  Ar          13.196807        9.363713        2.974909
  Ar          13.123845       12.233225       11.806574
  Ar          -0.000221       16.045733       12.108802
  Ar          24.008274        3.440025       20.821955
  Ar           5.197631       15.922739       -0.000136
  Ar           3.952419       24.000118       12.986275
  Ar          21.151879       19.315604        0.018275
  Ar          19.272986        1.537809       12.765916
  Ar          22.680527        8.911371        4.612373
  Ar          -0.000070       24.000055       16.721824
  Ar          -0.007156       12.076450       15.087502
  Ar          24.000041       15.431359       14.136749
  Ar          14.060400       16.152584       -0.000086
  Ar          15.783791        9.659678        6.434576
  Ar          19.107349       23.358571       12.257436
  Ar          19.253671        7.689027        8.269559
  Ar           6.068846        7.918020       -0.000102
  Ar          20.539414        3.577614       18.574505
  Ar          24.000122        6.964169       15.183358
  Ar          24.022994       17.718938       21.583144
  Ar          -0.000073       -0.000077        5.455400
  Ar           2.918830        5.688467       18.208546
  Ar          15.081395       10.900411       16.127794
  Ar           7.757295       24.000115       21.434460
  Ar           4.265875       20.001418        3.076139
  Ar          24.006734        5.269039        3.182294
  Ar          -0.000149       11.348077       19.379326
  Ar           5.922469        2.879162        9.896378
  Ar           3.301832       15.141246       10.000831
  Ar           4.023955       24.000025        4.699658
  Ar          20.260610       16.216409       16.112958
  Ar          17.398751       24.000110       16.209072
  Ar          24.000160       13.992489        9.171895
  Ar          14.264257        8.258674       10.314980
  Ar          23.904770       16.454807        1.909634
  Ar          10.831664       18.422734       24.025220
  Ar           6.331397       -0.000146       17.531942
  Ar          12.644314        8.193058       18.584319
  Ar          -0.000041       18.831449        3.326481
  Ar          24.000059       12.514625       -0.000013
  Ar          10.659004        3.543703       -0.000122
  Ar           6.781905       16.898205        8.116266
  Ar          17.476093        2.104233        6.283989
  Ar          18.106068        9.155943       13.449311
  Ar          22.610215       -0.011465       14.473288
  Ar          15.963985       20.883224        9.139369
  Ar          23.266809       19.048028       17.624312
  Ar          17.617660       17.965063        6.960344
  Ar           3.619073       13.018474       13.686572
  Ar           7.041828       19.249268       15.941222
  Ar          24.006389        9.591372        8.483005
  Ar          20.458369        5.023925        5.012188
  Ar          23.485936        7.461330       19.479467
  Ar          10.718308        5.675592       10.622975
  Ar          24.001901       12.950112        4.899856
  Ar           2.665611       17.134808       14.932248
  Ar           3.345495       13.689140       19.795658
  Ar          10.470392       10.554596       21.716152
  Ar           2.801007       -0.000064        9.253294
  Ar          20.372184       12.568853        3.262909
  Ar          24.035033       22.970124       18.771356
  Ar          -0.000073       15.469509       17.851570
  Ar           3.316334        9.766256       10.666415
  Ar          14.915046        3.530107        0.825491
  Ar          22.910295       24.000828        4.906016
  Ar          14.167408       24.000075        1.920879
  Ar           4.081813        6.598264        4.230934
  Ar           2.435628       17.805174       20.447579
  Ar           7.957236        8.355403       24.000244
  Ar          -0.009170       12.302372       -0.000047
  Ar          -0.000029       24.000091        2.099067
  Ar          10.185133       24.000145        6.809221
  Ar           8.266690       11.722927       -0.000005
  Ar           5.865098       24.006882       17.473045
  Ar          11.441495       14.635341       22.892955
  Ar           8.124635       24.000069        2.925861
  Ar          20.675740       15.822950       20.487562
  Ar          11.037099       24.000039       24.000151
  Ar           8.642411       11.624405       17.860793
  Ar          12.379037       18.981766       10.393357
  Ar           6.628595       17.372190       24.000069
  Ar          20.479705       14.893529       -0.002879
  Ar          17.682982       20.719173       24.000212
  Ar          17.321605       13.766590        6.136948
  Ar           8.022389        5.339461        2.734466
  Ar          11.082343       20.115008       14.439568
  Ar           9.588484       15.910403       -0.000029
  Ar          17.366202        3.794552       24.000178
  Ar           4.521505       -0.000050       24.000076
  Ar          15.118184       17.143555       24.000050
  Ar           2.110089        0.339434        1.730710
  Ar          17.445926       18.089367       11.865551
  Ar          -0.000042        3.714339       -0.000008
  Ar           7.541285        3.515441       24.000000
  Ar          16.809002       14.183002       13.773415
  Ar          20.393454       15.814119        9.527596
  Ar          16.090593       -0.000090        2.813342
  Ar          -0.007933       11.990841       10.659981
  Ar          17.187956        5.146853       11.360030
  Ar          12.326868        3.808581       16.770147
  Ar           2.313418       12.118208        6.787180
  Ar           7.571540       14.829740       20.641063
  Ar          12.501758       24.004120       20.238335
  Ar           6.405606       16.546206       12.530413
  Ar          20.487579       20.212560        9.511103
  Ar          16.653076        3.398693       16.077517
  Ar           9.544590       22.239156       17.970669
  Ar          14.875003       15.495200        9.416460
  Ar          11.516100       19.098914        2.265399
  Ar          20.427621       20.795169        5.152974
  Ar          -0.000106        2.952623        8.538775
  Ar           3.735770       14.060526       24.000068
  Ar           6.556314       -0.000144        6.972005
  Ar          16.976479        2.283078       20.313041
  Ar          20.096733       10.437649       20.477817
